&clm_inparm
 albice = 0.80,0.55
 co2_ppmv = 379.0
 co2_type = 'constant'
 create_crop_landunit = .false.
 dtime = 1800
 fatmlndfrc = '/home/hq/git/BCGen/inputdata/domain.lnd.fv4x5_gx3v7.091218.nc'
 finidat = '/mnt/CESM-data/inputdata/lnd/clm2/initdata/clmi.BCN.1949-01-01_4x5_gx3v7_simyr1850_c100322.nc'
 fpftcon = '/mnt/CESM-data/inputdata/lnd/clm2/pftdata/pft-physiology.clm40.c130424.nc'
 fsnowaging = '/mnt/CESM-data/inputdata/lnd/clm2/snicardata/snicar_drdt_bst_fit_60_c070416.nc'
 fsnowoptics = '/mnt/CESM-data/inputdata/lnd/clm2/snicardata/snicar_optics_5bnd_c090915.nc'
 fsurdat = '/mnt/CESM-data/inputdata/lnd/clm2/surfdata/surfdata_4x5_simyr2000_c090928.nc'
 maxpatch_glcmec = 0
 nsegspc = 20
 urban_hac = 'ON_WASTEHEAT'
 urban_traffic = .false.
/
&ndepdyn_nml
/
#!--------------------------------------------------------------------------------------------------------------------------
#! lnd_in:: Comment:
#! This namelist was created using the following command-line:
#!     /home/hq/work/cesm1_2_2_1/models/lnd/clm/bld/CLM build-namelist -csmdata /mnt/CESM-data/inputdata -lnd_frac /home/hq/git/BCGen/inputdata/domain.lnd.fv4x5_gx3v7.091218.nc
#! For help on options use: /home/hq/work/cesm1_2_2_1/models/lnd/clm/bld/CLM build-namelist -help
#!--------------------------------------------------------------------------------------------------------------------------
